tests/data/state_estimation/meshed-network-observability/observable-with-branch-measurement/input.json
{
  "version": "1.0",
  "type": "input",
  "is_batch": false,
  "attributes": {},
  "data": {
    "source": [
      {"id": 0, "node": 1, "status": 1, "u_ref": 1.0}
    ],
    "node": [
      {"id": 1, "u_rated": 10},
      {"id": 2, "u_rated": 10},
      {"id": 3, "u_rated": 10},
      {"id": 4, "u_rated": 10},
      {"id": 5, "u_rated": 10},
      {"id": 6, "u_rated": 10}
    ],
    "line": [
      {"id": 7, "from_node": 1, "to_node": 2, "from_status": 1, "to_status": 1, "r1": 1.0, "x1": 0.0, "c1": 0.0, "tan1": 0.0, "i_n": 500},
      {"id": 8, "from_node": 2, "to_node": 3, "from_status": 1, "to_status": 1, "r1": 1.0, "x1": 0.0, "c1": 0.0, "tan1": 0.0, "i_n": 500},
      {"id": 9, "from_node": 2, "to_node": 4, "from_status": 1, "to_status": 1, "r1": 1.0, "x1": 0.0, "c1": 0.0, "tan1": 0.0, "i_n": 500},
      {"id":10, "from_node": 2, "to_node": 5, "from_status": 1, "to_status": 1, "r1": 1.0, "x1": 0.0, "c1": 0.0, "tan1": 0.0, "i_n": 500},
      {"id":11, "from_node": 3, "to_node": 4, "from_status": 1, "to_status": 1, "r1": 1.0, "x1": 0.0, "c1": 0.0, "tan1": 0.0, "i_n": 500},
      {"id":12, "from_node": 5, "to_node": 6, "from_status": 1, "to_status": 1, "r1": 1.0, "x1": 0.0, "c1": 0.0, "tan1": 0.0, "i_n": 500}
    ],
    "sym_load": [
      {"id": 13, "node": 3, "status": 1, "type": 0, "p_specified": 9, "q_specified": 0},
      {"id": 14, "node": 6, "status": 1, "type": 0, "p_specified": 9, "q_specified": 0}
    ],
    "sym_power_sensor": [
      {"id": 15, "measured_object": 0, "measured_terminal_type": 2, "power_sigma": 1, "p_measured": 0, "q_measured": 0}
    ],
    "sym_current_sensor": [
      {"id": 16, "measured_object": 9, "measured_terminal_type": 0, "i_sigma": 1, "i_measured": 0},
      {"id": 17, "measured_object": 12, "measured_terminal_type": 0, "i_sigma": 1, "i_measured": 0}
    ],
    "sym_voltage_sensor": [
      {"id": 18, "measured_object": 3, "u_sigma": 1, "u_measured": 10, "u_angle_measured": 0},
      {"id": 19, "measured_object": 5, "u_sigma": 1, "u_measured": 10, "u_angle_measured": 0}
    ]
  }
}